/*--------------------------------*- C++ -*----------------------------------*\
| =========                 |                                                 |
| \\      /  F ield         | OpenFOAM: The Open Source CFD Toolbox           |
|  \\    /   O peration     | Version:  v2312                                 |
|   \\  /    A nd           | Website:  www.openfoam.com                      |
|    \\/     M anipulation  |                                                 |
\*---------------------------------------------------------------------------*/
FoamFile
{
    version     2.0;
    format      ascii;
    class       dictionary;
    object      setExprFieldsDict;
}
// * * * * * * * * * * * * * * * * * * * * * * * * * * * * * * * * * * * * * //
#include "../parms"

Gras #eval #{(-1*$g*$beta*($T_wall-$T_set)*pow($b,3))/(pow($nu,2))#};


expressions
(
    U
    {
        field       U;
        dimensions  [0 1 -1 0 0 0 0];

        constants
        {
            width $b;
            nu $nu;
            Gr $Gras;
            Xvelmag $ux_mag;
        }
        
        expression
        #{
            vector((((round(pos().y()) % 2)*2)-1)*$[(scalar)constants.Xvelmag], ((-1*(pow(pos().x()/$[(scalar)constants.width],2)/2)+(2+1)*((pos().x())/6)) * $[(scalar)constants.Gr] * $[(scalar)constants.nu]) ,0)
        #};
    }
);


// ************************************************************************* //
